# generated by PACMAN-Bader charge (https://github.com/sxm13/PACMAN/)
data_structure
_chemical_formula_sum              "Zn32 H96 C192 O104"
_cell_length_a       25.832
_cell_length_b       25.832
_cell_length_c       25.832
_cell_angle_alpha    90
_cell_angle_beta     90
_cell_angle_gamma    90

_symmetry_space_group_name_H-M    "P 1"
_symmetry_Int_Tables_number       1

loop_
  _symmetry_equiv_pos_as_xyz
  'x, y, z'

loop_
  _atom_site_type_symbol
  _atom_site_label
  _atom_site_symmetry_multiplicity
  _atom_site_fract_x
  _atom_site_fract_y
  _atom_site_fract_z
  _atom_site_occupancy
  _atom_site_charge
Zn  Zn1       1.0  0.29340  0.20660  0.20660  1.0000 1.294487
Zn  Zn2       1.0  0.70660  0.79340  0.20660  1.0000 1.295847
Zn  Zn3       1.0  0.70660  0.20660  0.79340  1.0000 1.295847
Zn  Zn4       1.0  0.29340  0.79340  0.79340  1.0000 1.295847
Zn  Zn5       1.0  0.20660  0.29340  0.20660  1.0000 1.295847
Zn  Zn6       1.0  0.20660  0.70660  0.79340  1.0000 1.295847
Zn  Zn7       1.0  0.79340  0.70660  0.20660  1.0000 1.295847
Zn  Zn8       1.0  0.79340  0.29340  0.79340  1.0000 1.295847
Zn  Zn9       1.0  0.20660  0.20660  0.29340  1.0000 1.294487
Zn  Zn10      1.0  0.79340  0.20660  0.70660  1.0000 1.295847
Zn  Zn11      1.0  0.20660  0.79340  0.70660  1.0000 1.295847
Zn  Zn12      1.0  0.79340  0.79340  0.29340  1.0000 1.295847
Zn  Zn13      1.0  0.20660  0.29340  0.79340  1.0000 1.294487
Zn  Zn14      1.0  0.79340  0.70660  0.79340  1.0000 1.295847
Zn  Zn15      1.0  0.20660  0.70660  0.20660  1.0000 1.295847
Zn  Zn16      1.0  0.79340  0.29340  0.20660  1.0000 1.295847
Zn  Zn17      1.0  0.29340  0.20660  0.79340  1.0000 1.294487
Zn  Zn18      1.0  0.70660  0.20660  0.20660  1.0000 1.295847
Zn  Zn19      1.0  0.70660  0.79340  0.79340  1.0000 1.295847
Zn  Zn20      1.0  0.29340  0.79340  0.20660  1.0000 1.295847
Zn  Zn21      1.0  0.20660  0.20660  0.70660  1.0000 1.294487
Zn  Zn22      1.0  0.20660  0.79340  0.29340  1.0000 1.295847
Zn  Zn23      1.0  0.79340  0.20660  0.29340  1.0000 1.295847
Zn  Zn24      1.0  0.79340  0.79340  0.70660  1.0000 1.295847
Zn  Zn25      1.0  0.29340  0.70660  0.70660  1.0000 1.295847
Zn  Zn26      1.0  0.70660  0.29340  0.70660  1.0000 1.295847
Zn  Zn27      1.0  0.70660  0.70660  0.29340  1.0000 1.295847
Zn  Zn28      1.0  0.29340  0.29340  0.29340  1.0000 1.294487
Zn  Zn29      1.0  0.29340  0.70660  0.29340  1.0000 1.295847
Zn  Zn30      1.0  0.70660  0.70660  0.70660  1.0000 1.295847
Zn  Zn31      1.0  0.70660  0.29340  0.29340  1.0000 1.295847
Zn  Zn32      1.0  0.29340  0.29340  0.70660  1.0000 1.294487
H   H1        1.0  0.30490  0.19510  0.04480  1.0000 0.131698
H   H2        1.0  0.69510  0.80490  0.04480  1.0000 0.131698
H   H3        1.0  0.69510  0.19510  0.95520  1.0000 0.131698
H   H4        1.0  0.30490  0.80490  0.95520  1.0000 0.131698
H   H5        1.0  0.04480  0.30490  0.19510  1.0000 0.131698
H   H6        1.0  0.04480  0.69510  0.80490  1.0000 0.131698
H   H7        1.0  0.95520  0.69510  0.19510  1.0000 0.135271
H   H8        1.0  0.95520  0.30490  0.80490  1.0000 0.131698
H   H9        1.0  0.19510  0.04480  0.30490  1.0000 0.131698
H   H10       1.0  0.80490  0.04480  0.69510  1.0000 0.131698
H   H11       1.0  0.19510  0.95520  0.69510  1.0000 0.131698
H   H12       1.0  0.80490  0.95520  0.30490  1.0000 0.135271
H   H13       1.0  0.19510  0.30490  0.95520  1.0000 0.131698
H   H14       1.0  0.80490  0.69510  0.95520  1.0000 0.131698
H   H15       1.0  0.19510  0.69510  0.04480  1.0000 0.131698
H   H16       1.0  0.80490  0.30490  0.04480  1.0000 0.131698
H   H17       1.0  0.30490  0.04480  0.80490  1.0000 0.131698
H   H18       1.0  0.69510  0.04480  0.19510  1.0000 0.131698
H   H19       1.0  0.69510  0.95520  0.80490  1.0000 0.131698
H   H20       1.0  0.30490  0.95520  0.19510  1.0000 0.131698
H   H21       1.0  0.04480  0.19510  0.69510  1.0000 0.131698
H   H22       1.0  0.04480  0.80490  0.30490  1.0000 0.131698
H   H23       1.0  0.95520  0.19510  0.30490  1.0000 0.131698
H   H24       1.0  0.95520  0.80490  0.69510  1.0000 0.131698
H   H25       1.0  0.69510  0.80490  0.95520  1.0000 0.131698
H   H26       1.0  0.30490  0.19510  0.95520  1.0000 0.131698
H   H27       1.0  0.30490  0.80490  0.04480  1.0000 0.131698
H   H28       1.0  0.69510  0.19510  0.04480  1.0000 0.131698
H   H29       1.0  0.95520  0.69510  0.80490  1.0000 0.131698
H   H30       1.0  0.95520  0.30490  0.19510  1.0000 0.131698
H   H31       1.0  0.04480  0.30490  0.80490  1.0000 0.131698
H   H32       1.0  0.04480  0.69510  0.19510  1.0000 0.131698
H   H33       1.0  0.80490  0.95520  0.69510  1.0000 0.131698
H   H34       1.0  0.19510  0.95520  0.30490  1.0000 0.131698
H   H35       1.0  0.80490  0.04480  0.30490  1.0000 0.131698
H   H36       1.0  0.19510  0.04480  0.69510  1.0000 0.131698
H   H37       1.0  0.80490  0.69510  0.04480  1.0000 0.131698
H   H38       1.0  0.19510  0.30490  0.04480  1.0000 0.131698
H   H39       1.0  0.80490  0.30490  0.95520  1.0000 0.131698
H   H40       1.0  0.19510  0.69510  0.95520  1.0000 0.131698
H   H41       1.0  0.69510  0.95520  0.19510  1.0000 0.135271
H   H42       1.0  0.30490  0.95520  0.80490  1.0000 0.131698
H   H43       1.0  0.30490  0.04480  0.19510  1.0000 0.131698
H   H44       1.0  0.69510  0.04480  0.80490  1.0000 0.131698
H   H45       1.0  0.95520  0.80490  0.30490  1.0000 0.135271
H   H46       1.0  0.95520  0.19510  0.69510  1.0000 0.131698
H   H47       1.0  0.04480  0.80490  0.69510  1.0000 0.131698
H   H48       1.0  0.04480  0.19510  0.30490  1.0000 0.131698
H   H49       1.0  0.30490  0.69510  0.54480  1.0000 0.131698
H   H50       1.0  0.69510  0.30490  0.54480  1.0000 0.131698
H   H51       1.0  0.69510  0.69510  0.45520  1.0000 0.131698
H   H52       1.0  0.30490  0.30490  0.45520  1.0000 0.131698
H   H53       1.0  0.19510  0.54480  0.80490  1.0000 0.131698
H   H54       1.0  0.80490  0.54480  0.19510  1.0000 0.135271
H   H55       1.0  0.19510  0.45520  0.19510  1.0000 0.131698
H   H56       1.0  0.80490  0.45520  0.80490  1.0000 0.131698
H   H57       1.0  0.19510  0.80490  0.45520  1.0000 0.131698
H   H58       1.0  0.80490  0.19510  0.45520  1.0000 0.131698
H   H59       1.0  0.19510  0.19510  0.54480  1.0000 0.131698
H   H60       1.0  0.80490  0.80490  0.54480  1.0000 0.131698
H   H61       1.0  0.30490  0.54480  0.30490  1.0000 0.131698
H   H62       1.0  0.69510  0.54480  0.69510  1.0000 0.131698
H   H63       1.0  0.69510  0.45520  0.30490  1.0000 0.131698
H   H64       1.0  0.30490  0.45520  0.69510  1.0000 0.131698
H   H65       1.0  0.69510  0.30490  0.45520  1.0000 0.131698
H   H66       1.0  0.30490  0.69510  0.45520  1.0000 0.131698
H   H67       1.0  0.30490  0.30490  0.54480  1.0000 0.131698
H   H68       1.0  0.69510  0.69510  0.54480  1.0000 0.131698
H   H69       1.0  0.80490  0.45520  0.19510  1.0000 0.131698
H   H70       1.0  0.19510  0.45520  0.80490  1.0000 0.131698
H   H71       1.0  0.80490  0.54480  0.80490  1.0000 0.131698
H   H72       1.0  0.19510  0.54480  0.19510  1.0000 0.131698
H   H73       1.0  0.80490  0.19510  0.54480  1.0000 0.131698
H   H74       1.0  0.19510  0.80490  0.54480  1.0000 0.131698
H   H75       1.0  0.80490  0.80490  0.45520  1.0000 0.131698
H   H76       1.0  0.19510  0.19510  0.45520  1.0000 0.131698
H   H77       1.0  0.69510  0.45520  0.69510  1.0000 0.131698
H   H78       1.0  0.30490  0.45520  0.30490  1.0000 0.131698
H   H79       1.0  0.30490  0.54480  0.69510  1.0000 0.131698
H   H80       1.0  0.69510  0.54480  0.30490  1.0000 0.135271
H   H81       1.0  0.54480  0.30490  0.69510  1.0000 0.131698
H   H82       1.0  0.54480  0.69510  0.30490  1.0000 0.131698
H   H83       1.0  0.45520  0.69510  0.69510  1.0000 0.131698
H   H84       1.0  0.45520  0.30490  0.30490  1.0000 0.131698
H   H85       1.0  0.54480  0.19510  0.19510  1.0000 0.131698
H   H86       1.0  0.54480  0.80490  0.80490  1.0000 0.131698
H   H87       1.0  0.45520  0.19510  0.80490  1.0000 0.131698
H   H88       1.0  0.45520  0.80490  0.19510  1.0000 0.131698
H   H89       1.0  0.45520  0.69510  0.30490  1.0000 0.131698
H   H90       1.0  0.45520  0.30490  0.69510  1.0000 0.131698
H   H91       1.0  0.54480  0.30490  0.30490  1.0000 0.131698
H   H92       1.0  0.54480  0.69510  0.69510  1.0000 0.131698
H   H93       1.0  0.45520  0.80490  0.80490  1.0000 0.131698
H   H94       1.0  0.45520  0.19510  0.19510  1.0000 0.131698
H   H95       1.0  0.54480  0.80490  0.19510  1.0000 0.131698
H   H96       1.0  0.54480  0.19510  0.80490  1.0000 0.131698
C   C1        1.0  0.25000  0.25000  0.11130  1.0000 1.437128
C   C2        1.0  0.75000  0.75000  0.11130  1.0000 1.437128
C   C3        1.0  0.75000  0.25000  0.88870  1.0000 1.437128
C   C4        1.0  0.25000  0.75000  0.88870  1.0000 1.437128
C   C5        1.0  0.11130  0.25000  0.25000  1.0000 1.437128
C   C6        1.0  0.11130  0.75000  0.75000  1.0000 1.437128
C   C7        1.0  0.88870  0.75000  0.25000  1.0000 1.437128
C   C8        1.0  0.88870  0.25000  0.75000  1.0000 1.437128
C   C9        1.0  0.25000  0.11130  0.25000  1.0000 1.437128
C   C10       1.0  0.75000  0.11130  0.75000  1.0000 1.437128
C   C11       1.0  0.25000  0.88870  0.75000  1.0000 1.437128
C   C12       1.0  0.75000  0.88870  0.25000  1.0000 1.437128
C   C13       1.0  0.25000  0.25000  0.88870  1.0000 1.437128
C   C14       1.0  0.75000  0.75000  0.88870  1.0000 1.437128
C   C15       1.0  0.25000  0.75000  0.11130  1.0000 1.437128
C   C16       1.0  0.75000  0.25000  0.11130  1.0000 1.437128
C   C17       1.0  0.25000  0.11130  0.75000  1.0000 1.437128
C   C18       1.0  0.75000  0.11130  0.25000  1.0000 1.437128
C   C19       1.0  0.75000  0.88870  0.75000  1.0000 1.437128
C   C20       1.0  0.25000  0.88870  0.25000  1.0000 1.437128
C   C21       1.0  0.11130  0.25000  0.75000  1.0000 1.437128
C   C22       1.0  0.11130  0.75000  0.25000  1.0000 1.437128
C   C23       1.0  0.88870  0.25000  0.25000  1.0000 1.437128
C   C24       1.0  0.88870  0.75000  0.75000  1.0000 1.437128
C   C25       1.0  0.25000  0.75000  0.61130  1.0000 1.437128
C   C26       1.0  0.75000  0.25000  0.61130  1.0000 1.437128
C   C27       1.0  0.75000  0.75000  0.38870  1.0000 1.437128
C   C28       1.0  0.25000  0.25000  0.38870  1.0000 1.437128
C   C29       1.0  0.25000  0.61130  0.75000  1.0000 1.437128
C   C30       1.0  0.75000  0.61130  0.25000  1.0000 1.437128
C   C31       1.0  0.25000  0.38870  0.25000  1.0000 1.437128
C   C32       1.0  0.75000  0.38870  0.75000  1.0000 1.437128
C   C33       1.0  0.25000  0.75000  0.38870  1.0000 1.437128
C   C34       1.0  0.75000  0.25000  0.38870  1.0000 1.437128
C   C35       1.0  0.25000  0.25000  0.61130  1.0000 1.437128
C   C36       1.0  0.75000  0.75000  0.61130  1.0000 1.437128
C   C37       1.0  0.25000  0.61130  0.25000  1.0000 1.437128
C   C38       1.0  0.75000  0.61130  0.75000  1.0000 1.437128
C   C39       1.0  0.75000  0.38870  0.25000  1.0000 1.437128
C   C40       1.0  0.25000  0.38870  0.75000  1.0000 1.437128
C   C41       1.0  0.61130  0.25000  0.75000  1.0000 1.437128
C   C42       1.0  0.61130  0.75000  0.25000  1.0000 1.437128
C   C43       1.0  0.38870  0.75000  0.75000  1.0000 1.437128
C   C44       1.0  0.38870  0.25000  0.25000  1.0000 1.437128
C   C45       1.0  0.61130  0.25000  0.25000  1.0000 1.437128
C   C46       1.0  0.61130  0.75000  0.75000  1.0000 1.437128
C   C47       1.0  0.38870  0.25000  0.75000  1.0000 1.437128
C   C48       1.0  0.38870  0.75000  0.25000  1.0000 1.437128
C   C49       1.0  0.25000  0.25000  0.05380  1.0000 -0.014652
C   C50       1.0  0.75000  0.75000  0.05380  1.0000 -0.016375
C   C51       1.0  0.75000  0.25000  0.94620  1.0000 -0.016375
C   C52       1.0  0.25000  0.75000  0.94620  1.0000 -0.016375
C   C53       1.0  0.05380  0.25000  0.25000  1.0000 -0.016375
C   C54       1.0  0.05380  0.75000  0.75000  1.0000 -0.016375
C   C55       1.0  0.94620  0.75000  0.25000  1.0000 -0.014652
C   C56       1.0  0.94620  0.25000  0.75000  1.0000 -0.016375
C   C57       1.0  0.25000  0.05380  0.25000  1.0000 -0.014652
C   C58       1.0  0.75000  0.05380  0.75000  1.0000 -0.016375
C   C59       1.0  0.25000  0.94620  0.75000  1.0000 -0.016375
C   C60       1.0  0.75000  0.94620  0.25000  1.0000 -0.016375
C   C61       1.0  0.25000  0.25000  0.94620  1.0000 -0.016375
C   C62       1.0  0.75000  0.75000  0.94620  1.0000 -0.016375
C   C63       1.0  0.25000  0.75000  0.05380  1.0000 -0.016375
C   C64       1.0  0.75000  0.25000  0.05380  1.0000 -0.014652
C   C65       1.0  0.25000  0.05380  0.75000  1.0000 -0.016375
C   C66       1.0  0.75000  0.05380  0.25000  1.0000 -0.016375
C   C67       1.0  0.75000  0.94620  0.75000  1.0000 -0.014652
C   C68       1.0  0.25000  0.94620  0.25000  1.0000 -0.016375
C   C69       1.0  0.05380  0.25000  0.75000  1.0000 -0.016375
C   C70       1.0  0.05380  0.75000  0.25000  1.0000 -0.016375
C   C71       1.0  0.94620  0.25000  0.25000  1.0000 -0.016375
C   C72       1.0  0.94620  0.75000  0.75000  1.0000 -0.016375
C   C73       1.0  0.25000  0.75000  0.55380  1.0000 -0.016375
C   C74       1.0  0.75000  0.25000  0.55380  1.0000 -0.016375
C   C75       1.0  0.75000  0.75000  0.44620  1.0000 -0.014652
C   C76       1.0  0.25000  0.25000  0.44620  1.0000 -0.016375
C   C77       1.0  0.25000  0.55380  0.75000  1.0000 -0.016375
C   C78       1.0  0.75000  0.55380  0.25000  1.0000 -0.014652
C   C79       1.0  0.25000  0.44620  0.25000  1.0000 -0.016375
C   C80       1.0  0.75000  0.44620  0.75000  1.0000 -0.016375
C   C81       1.0  0.25000  0.75000  0.44620  1.0000 -0.016375
C   C82       1.0  0.75000  0.25000  0.44620  1.0000 -0.016375
C   C83       1.0  0.25000  0.25000  0.55380  1.0000 -0.016375
C   C84       1.0  0.75000  0.75000  0.55380  1.0000 -0.014652
C   C85       1.0  0.25000  0.55380  0.25000  1.0000 -0.016375
C   C86       1.0  0.75000  0.55380  0.75000  1.0000 -0.016375
C   C87       1.0  0.75000  0.44620  0.25000  1.0000 -0.014652
C   C88       1.0  0.25000  0.44620  0.75000  1.0000 -0.016375
C   C89       1.0  0.55380  0.25000  0.75000  1.0000 -0.016375
C   C90       1.0  0.55380  0.75000  0.25000  1.0000 -0.014652
C   C91       1.0  0.44620  0.75000  0.75000  1.0000 -0.016375
C   C92       1.0  0.44620  0.25000  0.25000  1.0000 -0.016375
C   C93       1.0  0.55380  0.25000  0.25000  1.0000 -0.014652
C   C94       1.0  0.55380  0.75000  0.75000  1.0000 -0.014652
C   C95       1.0  0.44620  0.25000  0.75000  1.0000 -0.016375
C   C96       1.0  0.44620  0.75000  0.25000  1.0000 -0.016375
C   C97       1.0  0.28290  0.21710  0.02690  1.0000 -0.046352
C   C98       1.0  0.71710  0.78290  0.02690  1.0000 -0.046352
C   C99       1.0  0.71710  0.21710  0.97310  1.0000 -0.043432
C   C100      1.0  0.28290  0.78290  0.97310  1.0000 -0.043432
C   C101      1.0  0.02690  0.28290  0.21710  1.0000 -0.046352
C   C102      1.0  0.02690  0.71710  0.78290  1.0000 -0.046352
C   C103      1.0  0.97310  0.71710  0.21710  1.0000 -0.043432
C   C104      1.0  0.97310  0.28290  0.78290  1.0000 -0.043432
C   C105      1.0  0.21710  0.02690  0.28290  1.0000 -0.043432
C   C106      1.0  0.78290  0.02690  0.71710  1.0000 -0.043432
C   C107      1.0  0.21710  0.97310  0.71710  1.0000 -0.043432
C   C108      1.0  0.78290  0.97310  0.28290  1.0000 -0.046352
C   C109      1.0  0.21710  0.28290  0.97310  1.0000 -0.043432
C   C110      1.0  0.78290  0.71710  0.97310  1.0000 -0.043432
C   C111      1.0  0.21710  0.71710  0.02690  1.0000 -0.043432
C   C112      1.0  0.78290  0.28290  0.02690  1.0000 -0.046352
C   C113      1.0  0.28290  0.02690  0.78290  1.0000 -0.043432
C   C114      1.0  0.71710  0.02690  0.21710  1.0000 -0.043432
C   C115      1.0  0.71710  0.97310  0.78290  1.0000 -0.043432
C   C116      1.0  0.28290  0.97310  0.21710  1.0000 -0.043432
C   C117      1.0  0.02690  0.21710  0.71710  1.0000 -0.046352
C   C118      1.0  0.02690  0.78290  0.28290  1.0000 -0.046352
C   C119      1.0  0.97310  0.21710  0.28290  1.0000 -0.043432
C   C120      1.0  0.97310  0.78290  0.71710  1.0000 -0.043432
C   C121      1.0  0.71710  0.78290  0.97310  1.0000 -0.043432
C   C122      1.0  0.28290  0.21710  0.97310  1.0000 -0.043432
C   C123      1.0  0.28290  0.78290  0.02690  1.0000 -0.043432
C   C124      1.0  0.71710  0.21710  0.02690  1.0000 -0.046352
C   C125      1.0  0.97310  0.71710  0.78290  1.0000 -0.043432
C   C126      1.0  0.97310  0.28290  0.21710  1.0000 -0.043432
C   C127      1.0  0.02690  0.28290  0.78290  1.0000 -0.046352
C   C128      1.0  0.02690  0.71710  0.21710  1.0000 -0.046352
C   C129      1.0  0.78290  0.97310  0.71710  1.0000 -0.043432
C   C130      1.0  0.21710  0.97310  0.28290  1.0000 -0.043432
C   C131      1.0  0.78290  0.02690  0.28290  1.0000 -0.043432
C   C132      1.0  0.21710  0.02690  0.71710  1.0000 -0.043432
C   C133      1.0  0.78290  0.71710  0.02690  1.0000 -0.046352
C   C134      1.0  0.21710  0.28290  0.02690  1.0000 -0.046352
C   C135      1.0  0.78290  0.28290  0.97310  1.0000 -0.043432
C   C136      1.0  0.21710  0.71710  0.97310  1.0000 -0.043432
C   C137      1.0  0.71710  0.97310  0.21710  1.0000 -0.046352
C   C138      1.0  0.28290  0.97310  0.78290  1.0000 -0.043432
C   C139      1.0  0.28290  0.02690  0.21710  1.0000 -0.043432
C   C140      1.0  0.71710  0.02690  0.78290  1.0000 -0.043432
C   C141      1.0  0.97310  0.78290  0.28290  1.0000 -0.043432
C   C142      1.0  0.97310  0.21710  0.71710  1.0000 -0.043432
C   C143      1.0  0.02690  0.78290  0.71710  1.0000 -0.046352
C   C144      1.0  0.02690  0.21710  0.28290  1.0000 -0.046352
C   C145      1.0  0.28290  0.71710  0.52690  1.0000 -0.043432
C   C146      1.0  0.71710  0.28290  0.52690  1.0000 -0.043432
C   C147      1.0  0.71710  0.71710  0.47310  1.0000 -0.046352
C   C148      1.0  0.28290  0.28290  0.47310  1.0000 -0.043432
C   C149      1.0  0.21710  0.52690  0.78290  1.0000 -0.043432
C   C150      1.0  0.78290  0.52690  0.21710  1.0000 -0.046352
C   C151      1.0  0.21710  0.47310  0.21710  1.0000 -0.043432
C   C152      1.0  0.78290  0.47310  0.78290  1.0000 -0.043432
C   C153      1.0  0.21710  0.78290  0.47310  1.0000 -0.043432
C   C154      1.0  0.78290  0.21710  0.47310  1.0000 -0.043432
C   C155      1.0  0.21710  0.21710  0.52690  1.0000 -0.043432
C   C156      1.0  0.78290  0.78290  0.52690  1.0000 -0.043432
C   C157      1.0  0.28290  0.52690  0.28290  1.0000 -0.043432
C   C158      1.0  0.71710  0.52690  0.71710  1.0000 -0.043432
C   C159      1.0  0.71710  0.47310  0.28290  1.0000 -0.046352
C   C160      1.0  0.28290  0.47310  0.71710  1.0000 -0.043432
C   C161      1.0  0.71710  0.28290  0.47310  1.0000 -0.046352
C   C162      1.0  0.28290  0.71710  0.47310  1.0000 -0.043432
C   C163      1.0  0.28290  0.28290  0.52690  1.0000 -0.043432
C   C164      1.0  0.71710  0.71710  0.52690  1.0000 -0.043432
C   C165      1.0  0.78290  0.47310  0.21710  1.0000 -0.046352
C   C166      1.0  0.21710  0.47310  0.78290  1.0000 -0.043432
C   C167      1.0  0.78290  0.52690  0.78290  1.0000 -0.043432
C   C168      1.0  0.21710  0.52690  0.21710  1.0000 -0.043432
C   C169      1.0  0.78290  0.21710  0.52690  1.0000 -0.043432
C   C170      1.0  0.21710  0.78290  0.52690  1.0000 -0.043432
C   C171      1.0  0.78290  0.78290  0.47310  1.0000 -0.046352
C   C172      1.0  0.21710  0.21710  0.47310  1.0000 -0.046352
C   C173      1.0  0.71710  0.47310  0.71710  1.0000 -0.043432
C   C174      1.0  0.28290  0.47310  0.28290  1.0000 -0.043432
C   C175      1.0  0.28290  0.52690  0.71710  1.0000 -0.043432
C   C176      1.0  0.71710  0.52690  0.28290  1.0000 -0.046352
C   C177      1.0  0.52690  0.28290  0.71710  1.0000 -0.043432
C   C178      1.0  0.52690  0.71710  0.28290  1.0000 -0.043432
C   C179      1.0  0.47310  0.71710  0.71710  1.0000 -0.043432
C   C180      1.0  0.47310  0.28290  0.28290  1.0000 -0.043432
C   C181      1.0  0.52690  0.21710  0.21710  1.0000 -0.043432
C   C182      1.0  0.52690  0.78290  0.78290  1.0000 -0.043432
C   C183      1.0  0.47310  0.21710  0.78290  1.0000 -0.043432
C   C184      1.0  0.47310  0.78290  0.21710  1.0000 -0.043432
C   C185      1.0  0.47310  0.71710  0.28290  1.0000 -0.043432
C   C186      1.0  0.47310  0.28290  0.71710  1.0000 -0.043432
C   C187      1.0  0.52690  0.28290  0.28290  1.0000 -0.043432
C   C188      1.0  0.52690  0.71710  0.71710  1.0000 -0.043432
C   C189      1.0  0.47310  0.78290  0.78290  1.0000 -0.043432
C   C190      1.0  0.47310  0.21710  0.21710  1.0000 -0.043432
C   C191      1.0  0.52690  0.78290  0.21710  1.0000 -0.043432
C   C192      1.0  0.52690  0.21710  0.78290  1.0000 -0.043432
O   O1        1.0  0.25000  0.25000  0.25000  1.0000 -1.129343
O   O2        1.0  0.75000  0.75000  0.25000  1.0000 -1.129343
O   O3        1.0  0.75000  0.25000  0.75000  1.0000 -1.129343
O   O4        1.0  0.25000  0.75000  0.75000  1.0000 -1.12439
O   O5        1.0  0.25000  0.25000  0.75000  1.0000 -1.129343
O   O6        1.0  0.75000  0.75000  0.75000  1.0000 -1.129343
O   O7        1.0  0.25000  0.75000  0.25000  1.0000 -1.129343
O   O8        1.0  0.75000  0.25000  0.25000  1.0000 -1.129343
O   O9        1.0  0.28190  0.21810  0.13400  1.0000 -1.13614
O   O10       1.0  0.71810  0.78190  0.13400  1.0000 -1.13614
O   O11       1.0  0.71810  0.21810  0.86600  1.0000 -1.13614
O   O12       1.0  0.28190  0.78190  0.86600  1.0000 -1.13614
O   O13       1.0  0.13400  0.28190  0.21810  1.0000 -1.13614
O   O14       1.0  0.13400  0.71810  0.78190  1.0000 -1.13614
O   O15       1.0  0.86600  0.71810  0.21810  1.0000 -1.13614
O   O16       1.0  0.86600  0.28190  0.78190  1.0000 -1.13614
O   O17       1.0  0.21810  0.13400  0.28190  1.0000 -1.13614
O   O18       1.0  0.78190  0.13400  0.71810  1.0000 -1.13614
O   O19       1.0  0.21810  0.86600  0.71810  1.0000 -1.13614
O   O20       1.0  0.78190  0.86600  0.28190  1.0000 -1.13614
O   O21       1.0  0.21810  0.28190  0.86600  1.0000 -1.13614
O   O22       1.0  0.78190  0.71810  0.86600  1.0000 -1.13614
O   O23       1.0  0.21810  0.71810  0.13400  1.0000 -1.13614
O   O24       1.0  0.78190  0.28190  0.13400  1.0000 -1.13614
O   O25       1.0  0.28190  0.13400  0.78190  1.0000 -1.13614
O   O26       1.0  0.71810  0.13400  0.21810  1.0000 -1.13614
O   O27       1.0  0.71810  0.86600  0.78190  1.0000 -1.13614
O   O28       1.0  0.28190  0.86600  0.21810  1.0000 -1.13614
O   O29       1.0  0.13400  0.21810  0.71810  1.0000 -1.13614
O   O30       1.0  0.13400  0.78190  0.28190  1.0000 -1.13614
O   O31       1.0  0.86600  0.21810  0.28190  1.0000 -1.13614
O   O32       1.0  0.86600  0.78190  0.71810  1.0000 -1.13614
O   O33       1.0  0.71810  0.78190  0.86600  1.0000 -1.13614
O   O34       1.0  0.28190  0.21810  0.86600  1.0000 -1.13614
O   O35       1.0  0.28190  0.78190  0.13400  1.0000 -1.13614
O   O36       1.0  0.71810  0.21810  0.13400  1.0000 -1.13614
O   O37       1.0  0.86600  0.71810  0.78190  1.0000 -1.13614
O   O38       1.0  0.86600  0.28190  0.21810  1.0000 -1.13614
O   O39       1.0  0.13400  0.28190  0.78190  1.0000 -1.13614
O   O40       1.0  0.13400  0.71810  0.21810  1.0000 -1.13614
O   O41       1.0  0.78190  0.86600  0.71810  1.0000 -1.13614
O   O42       1.0  0.21810  0.86600  0.28190  1.0000 -1.13614
O   O43       1.0  0.78190  0.13400  0.28190  1.0000 -1.13614
O   O44       1.0  0.21810  0.13400  0.71810  1.0000 -1.13614
O   O45       1.0  0.78190  0.71810  0.13400  1.0000 -1.13614
O   O46       1.0  0.21810  0.28190  0.13400  1.0000 -1.13614
O   O47       1.0  0.78190  0.28190  0.86600  1.0000 -1.13614
O   O48       1.0  0.21810  0.71810  0.86600  1.0000 -1.13614
O   O49       1.0  0.71810  0.86600  0.21810  1.0000 -1.13614
O   O50       1.0  0.28190  0.86600  0.78190  1.0000 -1.13614
O   O51       1.0  0.28190  0.13400  0.21810  1.0000 -1.13614
O   O52       1.0  0.71810  0.13400  0.78190  1.0000 -1.13614
O   O53       1.0  0.86600  0.78190  0.28190  1.0000 -1.13614
O   O54       1.0  0.86600  0.21810  0.71810  1.0000 -1.13614
O   O55       1.0  0.13400  0.78190  0.71810  1.0000 -1.13614
O   O56       1.0  0.13400  0.21810  0.28190  1.0000 -1.13614
O   O57       1.0  0.28190  0.71810  0.63400  1.0000 -1.13614
O   O58       1.0  0.71810  0.28190  0.63400  1.0000 -1.13614
O   O59       1.0  0.71810  0.71810  0.36600  1.0000 -1.13614
O   O60       1.0  0.28190  0.28190  0.36600  1.0000 -1.13614
O   O61       1.0  0.21810  0.63400  0.78190  1.0000 -1.13614
O   O62       1.0  0.78190  0.63400  0.21810  1.0000 -1.13614
O   O63       1.0  0.21810  0.36600  0.21810  1.0000 -1.13614
O   O64       1.0  0.78190  0.36600  0.78190  1.0000 -1.13614
O   O65       1.0  0.21810  0.78190  0.36600  1.0000 -1.13614
O   O66       1.0  0.78190  0.21810  0.36600  1.0000 -1.13614
O   O67       1.0  0.21810  0.21810  0.63400  1.0000 -1.13614
O   O68       1.0  0.78190  0.78190  0.63400  1.0000 -1.13614
O   O69       1.0  0.28190  0.63400  0.28190  1.0000 -1.13614
O   O70       1.0  0.71810  0.63400  0.71810  1.0000 -1.13614
O   O71       1.0  0.71810  0.36600  0.28190  1.0000 -1.13614
O   O72       1.0  0.28190  0.36600  0.71810  1.0000 -1.13614
O   O73       1.0  0.71810  0.28190  0.36600  1.0000 -1.13614
O   O74       1.0  0.28190  0.71810  0.36600  1.0000 -1.13614
O   O75       1.0  0.28190  0.28190  0.63400  1.0000 -1.13614
O   O76       1.0  0.71810  0.71810  0.63400  1.0000 -1.13614
O   O77       1.0  0.78190  0.36600  0.21810  1.0000 -1.13614
O   O78       1.0  0.21810  0.36600  0.78190  1.0000 -1.13614
O   O79       1.0  0.78190  0.63400  0.78190  1.0000 -1.13614
O   O80       1.0  0.21810  0.63400  0.21810  1.0000 -1.13614
O   O81       1.0  0.78190  0.21810  0.63400  1.0000 -1.13614
O   O82       1.0  0.21810  0.78190  0.63400  1.0000 -1.13614
O   O83       1.0  0.78190  0.78190  0.36600  1.0000 -1.13614
O   O84       1.0  0.21810  0.21810  0.36600  1.0000 -1.13614
O   O85       1.0  0.71810  0.36600  0.71810  1.0000 -1.13614
O   O86       1.0  0.28190  0.36600  0.28190  1.0000 -1.13614
O   O87       1.0  0.28190  0.63400  0.71810  1.0000 -1.13614
O   O88       1.0  0.71810  0.63400  0.28190  1.0000 -1.13614
O   O89       1.0  0.63400  0.28190  0.71810  1.0000 -1.13614
O   O90       1.0  0.63400  0.71810  0.28190  1.0000 -1.13614
O   O91       1.0  0.36600  0.71810  0.71810  1.0000 -1.13614
O   O92       1.0  0.36600  0.28190  0.28190  1.0000 -1.13614
O   O93       1.0  0.63400  0.21810  0.21810  1.0000 -1.13614
O   O94       1.0  0.63400  0.78190  0.78190  1.0000 -1.13614
O   O95       1.0  0.36600  0.21810  0.78190  1.0000 -1.13614
O   O96       1.0  0.36600  0.78190  0.21810  1.0000 -1.13614
O   O97       1.0  0.36600  0.71810  0.28190  1.0000 -1.13614
O   O98       1.0  0.36600  0.28190  0.71810  1.0000 -1.13614
O   O99       1.0  0.63400  0.28190  0.28190  1.0000 -1.13614
O   O100      1.0  0.63400  0.71810  0.71810  1.0000 -1.13614
O   O101      1.0  0.36600  0.78190  0.78190  1.0000 -1.13614
O   O102      1.0  0.36600  0.21810  0.21810  1.0000 -1.13614
O   O103      1.0  0.63400  0.78190  0.21810  1.0000 -1.13614
O   O104      1.0  0.63400  0.21810  0.78190  1.0000 -1.13614
